 INFO
nunit      1    1    1
unit   tr_asym
celltype   convcell
shape   parapipedal
 END_INFO
 DIM-GROUP
           3           1
 PRIMVEC
    6.5249969690    0.0000000000    0.0000000000
    0.0000000000   10.8399949650    0.0000000000
   -1.5559103410    0.0000000000    7.1534426480
 CONVVEC
    6.5249969690    0.0000000000    0.0000000000
    0.0000000000   10.8399949650    0.0000000000
   -1.5559103410    0.0000000000    7.1534426480
 PRIMCOORD
          56           1
  7      5.6886796610     6.7601460600     3.2843601230
  8      7.6345389020     7.8128179710     3.1053809880
  7      6.6234361890     7.6327656550     3.7848149700
  7      4.4891026190     5.7135445460     5.0604168630
  8      3.2863212180     4.6538266380     6.6112116950
  7      3.3004874280     5.4507830680     5.6779020330
  8      6.3913467760     8.1227334270     4.8818669350
  6      4.4127543110     6.6880600930     3.9477703940
  1      3.7158685450     6.4064370240     3.3034598150
  1      4.1672899240     7.5804084790     4.2999343760
  8      2.3241557630     6.0900175710     5.2677951660
  6      5.9475307640     6.1238383560     1.9976703940
  1      5.1187016030     5.7029213510     1.7196876130
  1      6.2049350730     6.7630728590     1.3155181030
  1      3.7203917590    -1.3430753760    -2.2612032210
  1      2.6341582890    -0.2829238690    -1.8570337110
  6      3.4629874500    -0.7038408730    -1.5790509300
  8     -0.1603875510    -0.6700200890     1.6910738420
  1      1.6827466100    -2.1604109970     0.7232130520
  1      1.2313252310    -0.9864395420    -0.2732615090
  6      1.9282109970    -1.2680626110     0.3710490700
  8      3.9068034620    -2.7027359450     1.3051456110
  7      0.8159441140    -0.0307855860     2.1011807090
  8      0.8017779040     0.7661708440     3.0344903710
  7      2.0045593050    -0.2935470640     1.4836955390
  7      4.1388928750    -2.2127681720     0.2080936470
  8      5.1499955880    -2.3928204880    -0.4713403360
  7      3.2041363470    -1.3401485770    -0.2923612010
  1      5.2891485240     4.0769221060     5.8379245450
  1      6.3753819940     5.1370736140     5.4337550350
  6      5.5465528330     4.7161566090     5.1557722540
  8      9.1699278340     4.7499773940     1.8856474820
  1      7.3267936730     3.2595864860     2.8535082720
  1      7.7782150520     4.4335579410     3.8499828330
  6      7.0813292860     4.1519348710     3.2056722540
  8      5.1027368210     2.7172615380     2.2715757130
  7      8.1935961690     5.3892118970     1.4755406150
  8      8.2077623790     6.1861683260     0.5422309530
  7      7.0049809780     5.1264504190     2.0930257840
  7      4.8706474080     3.2072293100     3.3686276770
  8      3.8595446950     3.0271769940     4.0480616600
  7      5.8054039360     4.0798489050     3.8690825250
  1      2.8046052100     1.3430753760     2.2612032210
  1      3.8908386800     0.2829238690     1.8570337110
  6      3.0620095200     0.7038408730     1.5790509300
  8      6.6853845200     0.6700200890    -1.6910738420
  1      4.8422503590     2.1604109970    -0.7232130520
  1      5.2936717380     0.9864395420     0.2732615090
  6      4.5967859720     1.2680626110    -0.3710490700
  8      2.6181935080     2.7027359450    -1.3051456110
  7      5.7090528550     0.0307855860    -2.1011807090
  8      5.7232190650    -0.7661708440    -3.0344903710
  7      4.5204376640     0.2935470640    -1.4836955390
  7      2.3861040940     2.2127681720    -0.2080936470
  8      1.3750013810     2.3928204880     0.4713403360
  7      3.3208606220     1.3401485770     0.2923612010
 CONVCOORD
          56           1
  7      5.6886796610     6.7601460600     3.2843601230
  8      1.1095419330     7.8128179710     3.1053809880
  7      0.0984392200     7.6327656550     3.7848149700
  7      4.4891026190     5.7135445460     5.0604168630
  8      3.2863212180     4.6538266380     6.6112116950
  7      3.3004874280     5.4507830680     5.6779020330
  8     -0.1336501930     8.1227334270     4.8818669350
  6      4.4127543110     6.6880600930     3.9477703940
  1      3.7158685450     6.4064370240     3.3034598150
  1      4.1672899240     7.5804084790     4.2999343760
  8      2.3241557630     6.0900175710     5.2677951660
  6      5.9475307640     6.1238383560     1.9976703940
  1      5.1187016030     5.7029213510     1.7196876130
  1      6.2049350730     6.7630728590     1.3155181030
  1      3.7203917590    -1.3430753760    -2.2612032210
  1      2.6341582890    -0.2829238690    -1.8570337110
  6      3.4629874500    -0.7038408730    -1.5790509300
  8     -0.1603875510    -0.6700200890     1.6910738420
  1      1.6827466100    -2.1604109970     0.7232130520
  1      1.2313252310    -0.9864395420    -0.2732615090
  6      1.9282109970    -1.2680626110     0.3710490700
  8      3.9068034620    -2.7027359450     1.3051456110
  7      0.8159441140    -0.0307855860     2.1011807090
  8      0.8017779040     0.7661708440     3.0344903710
  7      2.0045593050    -0.2935470640     1.4836955390
  7      4.1388928750    -2.2127681720     0.2080936470
  8      5.1499955880    -2.3928204880    -0.4713403360
  7      3.2041363470    -1.3401485770    -0.2923612010
  1     -1.2358484450     4.0769221060     5.8379245450
  1     -0.1496149750     5.1370736140     5.4337550350
  6     -0.9784441360     4.7161566090     5.1557722540
  8      2.6449308650     4.7499773940     1.8856474820
  1      0.8017967040     3.2595864860     2.8535082720
  1      1.2532180830     4.4335579410     3.8499828330
  6      0.5563323170     4.1519348710     3.2056722540
  8      5.1027368210     2.7172615380     2.2715757130
  7      1.6685992000     5.3892118970     1.4755406150
  8      1.6827654100     6.1861683260     0.5422309530
  7      0.4799840090     5.1264504190     2.0930257840
  7      4.8706474080     3.2072293100     3.3686276770
  8      3.8595446950     3.0271769940     4.0480616600
  7     -0.7195930330     4.0798489050     3.8690825250
  1      2.8046052100     1.3430753760     2.2612032210
  1      3.8908386800     0.2829238690     1.8570337110
  6      3.0620095200     0.7038408730     1.5790509300
  8      6.6853845200     0.6700200890    -1.6910738420
  1      4.8422503590     2.1604109970    -0.7232130520
  1      5.2936717380     0.9864395420     0.2732615090
  6      4.5967859720     1.2680626110    -0.3710490700
  8      2.6181935080     2.7027359450    -1.3051456110
  7      5.7090528550     0.0307855860    -2.1011807090
  8      5.7232190650    -0.7661708440    -3.0344903710
  7      4.5204376640     0.2935470640    -1.4836955390
  7      2.3861040940     2.2127681720    -0.2080936470
  8      1.3750013810     2.3928204880     0.4713403360
  7      3.3208606220     1.3401485770     0.2923612010
 RECIP-PRIMVEC
    0.1532567762   -0.0000000000    0.0333341322

    0.0000000000    0.0922509654   -0.0000000000

    0.0000000000    0.0000000000    0.1397928311

 RECIP-CONVVEC
    0.1532567762   -0.0000000000    0.0333341322

    0.0000000000    0.0922509654   -0.0000000000

    0.0000000000    0.0000000000    0.1397928311

 WIGNER-SEITZ-PRIMCELL
           4
 -0.3262498E+01 -0.5419997E+01 -0.3036320E+01  -0.5705056E+00  0.0000000E+00 -0.8212937E+00
 -0.3262498E+01  0.5419997E+01 -0.3036320E+01  -0.5705056E+00  0.0000000E+00 -0.8212937E+00
 -0.1706588E+01  0.5419997E+01 -0.4117122E+01  -0.5705056E+00  0.0000000E+00 -0.8212937E+00
 -0.1706588E+01 -0.5419997E+01 -0.4117122E+01  -0.5705056E+00  0.0000000E+00 -0.8212937E+00
           4
 -0.3262498E+01  0.5419997E+01 -0.3036320E+01  -0.1000000E+01  0.4096766E-16  0.5991889E-32
 -0.3262498E+01 -0.5419997E+01 -0.3036320E+01  -0.1000000E+01  0.4096766E-16  0.5991889E-32
 -0.3262498E+01 -0.5419997E+01  0.3036320E+01  -0.1000000E+01  0.4096766E-16  0.5991889E-32
 -0.3262498E+01  0.5419997E+01  0.3036320E+01  -0.1000000E+01  0.4096766E-16  0.5991889E-32
           6
  0.3262498E+01 -0.5419997E+01  0.3036320E+01  -0.5592991E-31 -0.1000000E+01  0.1007544E-14
  0.1706588E+01 -0.5419997E+01  0.4117122E+01  -0.5592991E-31 -0.1000000E+01  0.1007544E-14
 -0.3262498E+01 -0.5419997E+01  0.3036320E+01  -0.5592991E-31 -0.1000000E+01  0.1007544E-14
 -0.3262498E+01 -0.5419997E+01 -0.3036320E+01  -0.5592991E-31 -0.1000000E+01  0.1007544E-14
 -0.1706588E+01 -0.5419997E+01 -0.4117122E+01  -0.5592991E-31 -0.1000000E+01  0.1007544E-14
  0.3262498E+01 -0.5419997E+01 -0.3036320E+01  -0.5592991E-31 -0.1000000E+01  0.1007544E-14
           4
  0.3262498E+01  0.5419997E+01 -0.3036320E+01   0.2125358E+00 -0.1288983E-15 -0.9771533E+00
  0.3262498E+01 -0.5419997E+01 -0.3036320E+01   0.2125358E+00 -0.1288983E-15 -0.9771533E+00
 -0.1706588E+01 -0.5419997E+01 -0.4117122E+01   0.2125358E+00 -0.1288983E-15 -0.9771533E+00
 -0.1706588E+01  0.5419997E+01 -0.4117122E+01   0.2125358E+00 -0.1288983E-15 -0.9771533E+00
           4
 -0.3262498E+01  0.5419997E+01  0.3036320E+01  -0.2125358E+00 -0.6444916E-16  0.9771533E+00
 -0.3262498E+01 -0.5419997E+01  0.3036320E+01  -0.2125358E+00 -0.6444916E-16  0.9771533E+00
  0.1706588E+01 -0.5419997E+01  0.4117122E+01  -0.2125358E+00 -0.6444916E-16  0.9771533E+00
  0.1706588E+01  0.5419997E+01  0.4117122E+01  -0.2125358E+00 -0.6444916E-16  0.9771533E+00
           6
  0.3262498E+01  0.5419997E+01 -0.3036320E+01   0.2237196E-30  0.1000000E+01  0.1259430E-14
 -0.1706588E+01  0.5419997E+01 -0.4117122E+01   0.2237196E-30  0.1000000E+01  0.1259430E-14
 -0.3262498E+01  0.5419997E+01 -0.3036320E+01   0.2237196E-30  0.1000000E+01  0.1259430E-14
 -0.3262498E+01  0.5419997E+01  0.3036320E+01   0.2237196E-30  0.1000000E+01  0.1259430E-14
  0.1706588E+01  0.5419997E+01  0.4117122E+01   0.2237196E-30  0.1000000E+01  0.1259430E-14
  0.3262498E+01  0.5419997E+01  0.3036320E+01   0.2237196E-30  0.1000000E+01  0.1259430E-14
           4
  0.3262498E+01  0.5419997E+01  0.3036320E+01   0.1000000E+01 -0.4096766E-16  0.0000000E+00
  0.3262498E+01 -0.5419997E+01  0.3036320E+01   0.1000000E+01 -0.4096766E-16  0.0000000E+00
  0.3262498E+01 -0.5419997E+01 -0.3036320E+01   0.1000000E+01 -0.4096766E-16  0.0000000E+00
  0.3262498E+01  0.5419997E+01 -0.3036320E+01   0.1000000E+01 -0.4096766E-16  0.0000000E+00
           4
  0.1706588E+01 -0.5419997E+01  0.4117122E+01   0.5705056E+00 -0.3311885E-16  0.8212937E+00
  0.3262498E+01 -0.5419997E+01  0.3036320E+01   0.5705056E+00 -0.3311885E-16  0.8212937E+00
  0.3262498E+01  0.5419997E+01  0.3036320E+01   0.5705056E+00 -0.3311885E-16  0.8212937E+00
  0.1706588E+01  0.5419997E+01  0.4117122E+01   0.5705056E+00 -0.3311885E-16  0.8212937E+00
 WIGNER-SEITZ-PRIMCELL_END
 WIGNER-SEITZ-CONVCELL
           4
 -0.3262498E+01 -0.5419997E+01 -0.3036320E+01  -0.5705056E+00  0.0000000E+00 -0.8212937E+00
 -0.3262498E+01  0.5419997E+01 -0.3036320E+01  -0.5705056E+00  0.0000000E+00 -0.8212937E+00
 -0.1706588E+01  0.5419997E+01 -0.4117122E+01  -0.5705056E+00  0.0000000E+00 -0.8212937E+00
 -0.1706588E+01 -0.5419997E+01 -0.4117122E+01  -0.5705056E+00  0.0000000E+00 -0.8212937E+00
           4
 -0.3262498E+01  0.5419997E+01 -0.3036320E+01  -0.1000000E+01  0.4096766E-16  0.5991889E-32
 -0.3262498E+01 -0.5419997E+01 -0.3036320E+01  -0.1000000E+01  0.4096766E-16  0.5991889E-32
 -0.3262498E+01 -0.5419997E+01  0.3036320E+01  -0.1000000E+01  0.4096766E-16  0.5991889E-32
 -0.3262498E+01  0.5419997E+01  0.3036320E+01  -0.1000000E+01  0.4096766E-16  0.5991889E-32
           6
  0.3262498E+01 -0.5419997E+01  0.3036320E+01  -0.5592991E-31 -0.1000000E+01  0.1007544E-14
  0.1706588E+01 -0.5419997E+01  0.4117122E+01  -0.5592991E-31 -0.1000000E+01  0.1007544E-14
 -0.3262498E+01 -0.5419997E+01  0.3036320E+01  -0.5592991E-31 -0.1000000E+01  0.1007544E-14
 -0.3262498E+01 -0.5419997E+01 -0.3036320E+01  -0.5592991E-31 -0.1000000E+01  0.1007544E-14
 -0.1706588E+01 -0.5419997E+01 -0.4117122E+01  -0.5592991E-31 -0.1000000E+01  0.1007544E-14
  0.3262498E+01 -0.5419997E+01 -0.3036320E+01  -0.5592991E-31 -0.1000000E+01  0.1007544E-14
           4
  0.3262498E+01  0.5419997E+01 -0.3036320E+01   0.2125358E+00 -0.1288983E-15 -0.9771533E+00
  0.3262498E+01 -0.5419997E+01 -0.3036320E+01   0.2125358E+00 -0.1288983E-15 -0.9771533E+00
 -0.1706588E+01 -0.5419997E+01 -0.4117122E+01   0.2125358E+00 -0.1288983E-15 -0.9771533E+00
 -0.1706588E+01  0.5419997E+01 -0.4117122E+01   0.2125358E+00 -0.1288983E-15 -0.9771533E+00
           4
 -0.3262498E+01  0.5419997E+01  0.3036320E+01  -0.2125358E+00 -0.6444916E-16  0.9771533E+00
 -0.3262498E+01 -0.5419997E+01  0.3036320E+01  -0.2125358E+00 -0.6444916E-16  0.9771533E+00
  0.1706588E+01 -0.5419997E+01  0.4117122E+01  -0.2125358E+00 -0.6444916E-16  0.9771533E+00
  0.1706588E+01  0.5419997E+01  0.4117122E+01  -0.2125358E+00 -0.6444916E-16  0.9771533E+00
           6
  0.3262498E+01  0.5419997E+01 -0.3036320E+01   0.2237196E-30  0.1000000E+01  0.1259430E-14
 -0.1706588E+01  0.5419997E+01 -0.4117122E+01   0.2237196E-30  0.1000000E+01  0.1259430E-14
 -0.3262498E+01  0.5419997E+01 -0.3036320E+01   0.2237196E-30  0.1000000E+01  0.1259430E-14
 -0.3262498E+01  0.5419997E+01  0.3036320E+01   0.2237196E-30  0.1000000E+01  0.1259430E-14
  0.1706588E+01  0.5419997E+01  0.4117122E+01   0.2237196E-30  0.1000000E+01  0.1259430E-14
  0.3262498E+01  0.5419997E+01  0.3036320E+01   0.2237196E-30  0.1000000E+01  0.1259430E-14
           4
  0.3262498E+01  0.5419997E+01  0.3036320E+01   0.1000000E+01 -0.4096766E-16  0.0000000E+00
  0.3262498E+01 -0.5419997E+01  0.3036320E+01   0.1000000E+01 -0.4096766E-16  0.0000000E+00
  0.3262498E+01 -0.5419997E+01 -0.3036320E+01   0.1000000E+01 -0.4096766E-16  0.0000000E+00
  0.3262498E+01  0.5419997E+01 -0.3036320E+01   0.1000000E+01 -0.4096766E-16  0.0000000E+00
           4
  0.1706588E+01 -0.5419997E+01  0.4117122E+01   0.5705056E+00 -0.3311885E-16  0.8212937E+00
  0.3262498E+01 -0.5419997E+01  0.3036320E+01   0.5705056E+00 -0.3311885E-16  0.8212937E+00
  0.3262498E+01  0.5419997E+01  0.3036320E+01   0.5705056E+00 -0.3311885E-16  0.8212937E+00
  0.1706588E+01  0.5419997E+01  0.4117122E+01   0.5705056E+00 -0.3311885E-16  0.8212937E+00
 WIGNER-SEITZ-CONVCELL_END
 BRILLOUIN-ZONE-PRIMCELL
           4
 -0.8820604E-01  0.4612548E-01  0.3656228E-01  -0.9771533E+00  0.0000000E+00 -0.2125358E+00
 -0.6505073E-01  0.4612548E-01 -0.6989642E-01  -0.9771533E+00  0.0000000E+00 -0.2125358E+00
 -0.6505073E-01 -0.4612548E-01 -0.6989642E-01  -0.9771533E+00  0.0000000E+00 -0.2125358E+00
 -0.8820604E-01 -0.4612548E-01  0.3656228E-01  -0.9771533E+00  0.0000000E+00 -0.2125358E+00
           4
 -0.8820604E-01  0.4612548E-01  0.3656228E-01  -0.8212937E+00 -0.8687002E-16  0.5705056E+00
 -0.8820604E-01 -0.4612548E-01  0.3656228E-01  -0.8212937E+00 -0.8687002E-16  0.5705056E+00
 -0.6505073E-01 -0.4612548E-01  0.6989642E-01  -0.8212937E+00 -0.8687002E-16  0.5705056E+00
 -0.6505073E-01  0.4612548E-01  0.6989642E-01  -0.8212937E+00 -0.8687002E-16  0.5705056E+00
           6
  0.6505073E-01 -0.4612548E-01  0.6989642E-01  -0.0000000E+00 -0.1000000E+01  0.1999995E-15
 -0.6505073E-01 -0.4612548E-01  0.6989642E-01  -0.0000000E+00 -0.1000000E+01  0.1999995E-15
 -0.8820604E-01 -0.4612548E-01  0.3656228E-01  -0.0000000E+00 -0.1000000E+01  0.1999995E-15
 -0.6505073E-01 -0.4612548E-01 -0.6989642E-01  -0.0000000E+00 -0.1000000E+01  0.1999995E-15
  0.6505073E-01 -0.4612548E-01 -0.6989642E-01  -0.0000000E+00 -0.1000000E+01  0.1999995E-15
  0.8820604E-01 -0.4612548E-01 -0.3656228E-01  -0.0000000E+00 -0.1000000E+01  0.1999995E-15
           4
 -0.6505073E-01  0.4612548E-01 -0.6989642E-01  -0.7226819E-16  0.0000000E+00 -0.1000000E+01
  0.6505073E-01  0.4612548E-01 -0.6989642E-01  -0.7226819E-16  0.0000000E+00 -0.1000000E+01
  0.6505073E-01 -0.4612548E-01 -0.6989642E-01  -0.7226819E-16  0.0000000E+00 -0.1000000E+01
 -0.6505073E-01 -0.4612548E-01 -0.6989642E-01  -0.7226819E-16  0.0000000E+00 -0.1000000E+01
           4
 -0.6505073E-01 -0.4612548E-01  0.6989642E-01  -0.0000000E+00 -0.0000000E+00  0.1000000E+01
  0.6505073E-01 -0.4612548E-01  0.6989642E-01  -0.0000000E+00 -0.0000000E+00  0.1000000E+01
  0.6505073E-01  0.4612548E-01  0.6989642E-01  -0.0000000E+00 -0.0000000E+00  0.1000000E+01
 -0.6505073E-01  0.4612548E-01  0.6989642E-01  -0.0000000E+00 -0.0000000E+00  0.1000000E+01
           6
  0.8820604E-01  0.4612548E-01 -0.3656228E-01  -0.0000000E+00  0.1000000E+01  0.1999995E-15
  0.6505073E-01  0.4612548E-01 -0.6989642E-01  -0.0000000E+00  0.1000000E+01  0.1999995E-15
 -0.6505073E-01  0.4612548E-01 -0.6989642E-01  -0.0000000E+00  0.1000000E+01  0.1999995E-15
 -0.8820604E-01  0.4612548E-01  0.3656228E-01  -0.0000000E+00  0.1000000E+01  0.1999995E-15
 -0.6505073E-01  0.4612548E-01  0.6989642E-01  -0.0000000E+00  0.1000000E+01  0.1999995E-15
  0.6505073E-01  0.4612548E-01  0.6989642E-01  -0.0000000E+00  0.1000000E+01  0.1999995E-15
           4
  0.8820604E-01 -0.4612548E-01 -0.3656228E-01   0.8212937E+00 -0.1968974E-16 -0.5705056E+00
  0.6505073E-01 -0.4612548E-01 -0.6989642E-01   0.8212937E+00 -0.1968974E-16 -0.5705056E+00
  0.6505073E-01  0.4612548E-01 -0.6989642E-01   0.8212937E+00 -0.1968974E-16 -0.5705056E+00
  0.8820604E-01  0.4612548E-01 -0.3656228E-01   0.8212937E+00 -0.1968974E-16 -0.5705056E+00
           4
  0.6505073E-01 -0.4612548E-01  0.6989642E-01   0.9771533E+00 -0.1288755E-15  0.2125358E+00
  0.8820604E-01 -0.4612548E-01 -0.3656228E-01   0.9771533E+00 -0.1288755E-15  0.2125358E+00
  0.8820604E-01  0.4612548E-01 -0.3656228E-01   0.9771533E+00 -0.1288755E-15  0.2125358E+00
  0.6505073E-01  0.4612548E-01  0.6989642E-01   0.9771533E+00 -0.1288755E-15  0.2125358E+00
 BRILLOUIN-ZONE-PRIMCELL_END
 BRILLOUIN-ZONE-CONVCELL
           4
 -0.8820604E-01  0.4612548E-01  0.3656228E-01  -0.9771533E+00  0.0000000E+00 -0.2125358E+00
 -0.6505073E-01  0.4612548E-01 -0.6989642E-01  -0.9771533E+00  0.0000000E+00 -0.2125358E+00
 -0.6505073E-01 -0.4612548E-01 -0.6989642E-01  -0.9771533E+00  0.0000000E+00 -0.2125358E+00
 -0.8820604E-01 -0.4612548E-01  0.3656228E-01  -0.9771533E+00  0.0000000E+00 -0.2125358E+00
           4
 -0.8820604E-01  0.4612548E-01  0.3656228E-01  -0.8212937E+00 -0.8687002E-16  0.5705056E+00
 -0.8820604E-01 -0.4612548E-01  0.3656228E-01  -0.8212937E+00 -0.8687002E-16  0.5705056E+00
 -0.6505073E-01 -0.4612548E-01  0.6989642E-01  -0.8212937E+00 -0.8687002E-16  0.5705056E+00
 -0.6505073E-01  0.4612548E-01  0.6989642E-01  -0.8212937E+00 -0.8687002E-16  0.5705056E+00
           6
  0.6505073E-01 -0.4612548E-01  0.6989642E-01  -0.0000000E+00 -0.1000000E+01  0.1999995E-15
 -0.6505073E-01 -0.4612548E-01  0.6989642E-01  -0.0000000E+00 -0.1000000E+01  0.1999995E-15
 -0.8820604E-01 -0.4612548E-01  0.3656228E-01  -0.0000000E+00 -0.1000000E+01  0.1999995E-15
 -0.6505073E-01 -0.4612548E-01 -0.6989642E-01  -0.0000000E+00 -0.1000000E+01  0.1999995E-15
  0.6505073E-01 -0.4612548E-01 -0.6989642E-01  -0.0000000E+00 -0.1000000E+01  0.1999995E-15
  0.8820604E-01 -0.4612548E-01 -0.3656228E-01  -0.0000000E+00 -0.1000000E+01  0.1999995E-15
           4
 -0.6505073E-01  0.4612548E-01 -0.6989642E-01  -0.7226819E-16  0.0000000E+00 -0.1000000E+01
  0.6505073E-01  0.4612548E-01 -0.6989642E-01  -0.7226819E-16  0.0000000E+00 -0.1000000E+01
  0.6505073E-01 -0.4612548E-01 -0.6989642E-01  -0.7226819E-16  0.0000000E+00 -0.1000000E+01
 -0.6505073E-01 -0.4612548E-01 -0.6989642E-01  -0.7226819E-16  0.0000000E+00 -0.1000000E+01
           4
 -0.6505073E-01 -0.4612548E-01  0.6989642E-01  -0.0000000E+00 -0.0000000E+00  0.1000000E+01
  0.6505073E-01 -0.4612548E-01  0.6989642E-01  -0.0000000E+00 -0.0000000E+00  0.1000000E+01
  0.6505073E-01  0.4612548E-01  0.6989642E-01  -0.0000000E+00 -0.0000000E+00  0.1000000E+01
 -0.6505073E-01  0.4612548E-01  0.6989642E-01  -0.0000000E+00 -0.0000000E+00  0.1000000E+01
           6
  0.8820604E-01  0.4612548E-01 -0.3656228E-01  -0.0000000E+00  0.1000000E+01  0.1999995E-15
  0.6505073E-01  0.4612548E-01 -0.6989642E-01  -0.0000000E+00  0.1000000E+01  0.1999995E-15
 -0.6505073E-01  0.4612548E-01 -0.6989642E-01  -0.0000000E+00  0.1000000E+01  0.1999995E-15
 -0.8820604E-01  0.4612548E-01  0.3656228E-01  -0.0000000E+00  0.1000000E+01  0.1999995E-15
 -0.6505073E-01  0.4612548E-01  0.6989642E-01  -0.0000000E+00  0.1000000E+01  0.1999995E-15
  0.6505073E-01  0.4612548E-01  0.6989642E-01  -0.0000000E+00  0.1000000E+01  0.1999995E-15
           4
  0.8820604E-01 -0.4612548E-01 -0.3656228E-01   0.8212937E+00 -0.1968974E-16 -0.5705056E+00
  0.6505073E-01 -0.4612548E-01 -0.6989642E-01   0.8212937E+00 -0.1968974E-16 -0.5705056E+00
  0.6505073E-01  0.4612548E-01 -0.6989642E-01   0.8212937E+00 -0.1968974E-16 -0.5705056E+00
  0.8820604E-01  0.4612548E-01 -0.3656228E-01   0.8212937E+00 -0.1968974E-16 -0.5705056E+00
           4
  0.6505073E-01 -0.4612548E-01  0.6989642E-01   0.9771533E+00 -0.1288755E-15  0.2125358E+00
  0.8820604E-01 -0.4612548E-01 -0.3656228E-01   0.9771533E+00 -0.1288755E-15  0.2125358E+00
  0.8820604E-01  0.4612548E-01 -0.3656228E-01   0.9771533E+00 -0.1288755E-15  0.2125358E+00
  0.6505073E-01  0.4612548E-01  0.6989642E-01   0.9771533E+00 -0.1288755E-15  0.2125358E+00
 BRILLOUIN-ZONE-CONVCELL_END
 ATOMS
    7    5.6886796610    6.7601460600    3.2843601230
    8    7.6345389020    7.8128179710    3.1053809880
    7    6.6234361890    7.6327656550    3.7848149700
    7    4.4891026190    5.7135445460    5.0604168630
    8    3.2863212180    4.6538266380    6.6112116950
    7    3.3004874280    5.4507830680    5.6779020330
    8    6.3913467760    8.1227334270    4.8818669350
    6    4.4127543110    6.6880600930    3.9477703940
    1    3.7158685450    6.4064370240    3.3034598150
    1    4.1672899240    7.5804084790    4.2999343760
    8    2.3241557630    6.0900175710    5.2677951660
    6    5.9475307640    6.1238383560    1.9976703940
    1    5.1187016030    5.7029213510    1.7196876130
    1    6.2049350730    6.7630728590    1.3155181030
    1    3.7203917590   -1.3430753760   -2.2612032210
    1    2.6341582890   -0.2829238690   -1.8570337110
    6    3.4629874500   -0.7038408730   -1.5790509300
    8   -0.1603875510   -0.6700200890    1.6910738420
    1    1.6827466100   -2.1604109970    0.7232130520
    1    1.2313252310   -0.9864395420   -0.2732615090
    6    1.9282109970   -1.2680626110    0.3710490700
    8    3.9068034620   -2.7027359450    1.3051456110
    7    0.8159441140   -0.0307855860    2.1011807090
    8    0.8017779040    0.7661708440    3.0344903710
    7    2.0045593050   -0.2935470640    1.4836955390
    7    4.1388928750   -2.2127681720    0.2080936470
    8    5.1499955880   -2.3928204880   -0.4713403360
    7    3.2041363470   -1.3401485770   -0.2923612010
    1    5.2891485240    4.0769221060    5.8379245450
    1    6.3753819940    5.1370736140    5.4337550350
    6    5.5465528330    4.7161566090    5.1557722540
    8    9.1699278340    4.7499773940    1.8856474820
    1    7.3267936730    3.2595864860    2.8535082720
    1    7.7782150520    4.4335579410    3.8499828330
    6    7.0813292860    4.1519348710    3.2056722540
    8    5.1027368210    2.7172615380    2.2715757130
    7    8.1935961690    5.3892118970    1.4755406150
    8    8.2077623790    6.1861683260    0.5422309530
    7    7.0049809780    5.1264504190    2.0930257840
    7    4.8706474080    3.2072293100    3.3686276770
    8    3.8595446950    3.0271769940    4.0480616600
    7    5.8054039360    4.0798489050    3.8690825250
    1    2.8046052100    1.3430753760    2.2612032210
    1    3.8908386800    0.2829238690    1.8570337110
    6    3.0620095200    0.7038408730    1.5790509300
    8    6.6853845200    0.6700200890   -1.6910738420
    1    4.8422503590    2.1604109970   -0.7232130520
    1    5.2936717380    0.9864395420    0.2732615090
    6    4.5967859720    1.2680626110   -0.3710490700
    8    2.6181935080    2.7027359450   -1.3051456110
    7    5.7090528550    0.0307855860   -2.1011807090
    8    5.7232190650   -0.7661708440   -3.0344903710
    7    4.5204376640    0.2935470640   -1.4836955390
    7    2.3861040940    2.2127681720   -0.2080936470
    8    1.3750013810    2.3928204880    0.4713403360
    7    3.3208606220    1.3401485770    0.2923612010
 FRAMES
1      0.0000000000    0.0000000000    0.0000000000      6.5249969690    0.0000000000    0.0000000000
1      0.0000000000    0.0000000000    0.0000000000      0.0000000000   10.8399949650    0.0000000000
1      0.0000000000    0.0000000000    0.0000000000     -1.5559103410    0.0000000000    7.1534426480
1     -1.5559103410    0.0000000000    7.1534426480      4.9690866280    0.0000000000    7.1534426480
1     -1.5559103410    0.0000000000    7.1534426480     -1.5559103410   10.8399949650    7.1534426480
1      0.0000000000   10.8399949650    0.0000000000      6.5249969690   10.8399949650    0.0000000000
1      0.0000000000   10.8399949650    0.0000000000     -1.5559103410   10.8399949650    7.1534426480
1     -1.5559103410   10.8399949650    7.1534426480      4.9690866280   10.8399949650    7.1534426480
1      6.5249969690    0.0000000000    0.0000000000      6.5249969690   10.8399949650    0.0000000000
1      6.5249969690    0.0000000000    0.0000000000      4.9690866280    0.0000000000    7.1534426480
1      4.9690866280    0.0000000000    7.1534426480      4.9690866280   10.8399949650    7.1534426480
1      6.5249969690   10.8399949650    0.0000000000      4.9690866280   10.8399949650    7.1534426480
